<?xml version="1.0" encoding="UTF-8"?>

<!-- generated on 2024-07-08 23:27:17.557040 by gtfs2pt.py UNKNOWN
<configuration>
    <gtfs value="Cuenca2022-20220317.zip"/>
    <date value="20231218"/>
    <modes value="bus"/>
    <vtype-output value="pt_vtypes.xml"/>
    <network value="osm.net.xml"/>
</configuration>
-->

<routes xmlns:xsi="http://www.w3.org/2001/XMLSchema-instance" xsi:noNamespaceSchemaLocation="http://sumo.dlr.de/xsd/routes_file.xsd">
    <route id="17a49046-eaf0-4f43-956f-8460227a7628" edges="-336161700#8 -336161700#7 -336161700#6 -336161700#5 -336161700#4 -336161700#3 -336161700#2 -336161700#1 -336161700#0 -405315550#2 -405315550#1 -405315550#0 -405315551#1 -405315551#0 42453891#0 42453891#1 42453892#4 42453890 542383550 1163706644 552440209 542382463 542382459#0 542382459#1 542382459#2 35906223#0 35906223#1 35906223#2 35906223#3 762071201 425648249#1 425648249#2 425648249#3 425648249#4 328541300 416719148#0 416719148#1 416719148#2 416719148#3 416719148#4 416719148#5 416719148#6 416719148#7 416719148#8 416719148#9 416719148#10 416719148#11 -47198328#7 -47198328#6 -47198328#4 -47198328#3 -47198328#2 -47198328#1 -47198328#0 301162960#8 301162960#9 301162960#10 301162960#12 301162960#13 301162960#14 301162960#15 301162960#16 301162960#17 301162960#18 301162960#19 301162960#20 301162960#21 301162960#23 301162960#24 301162960#25 301162960#26 301162960#27 403894674#0 403894674#1 403894674#2 403894673#0 403894673#1 403894673#2 895265101#0 895265101#1 895265101#2 895265101#3 48552361#1 605352055 605352052#1 605352057 605352056#0 605352056#1 972644144#0 972644144#1 972644144#2 972644144#3 972644144#4 65107406#0 65107406#1 48202925#0 48202925#1 399285450#0 399285450#1 399285450#2 399285450#3 399285450#4 399285450#5 35287032#0 35287032#1 35287032#2 35287032#3 35287032#4 35287032#5 35287032#6 35287032#7 35287032#8 35287032#9 35287032#10 35287032#11 406261768#0 406261768#1 406261768#2 406261768#4 406261768#5 49222370#1 42456620#0 42456620#1 42456620#2 311431490 397464990#1 42456623#3 42456623#4 42456623#5 42456626 42456628#3 42456625#0 42456625#1 42456625#2 42456625#3 42456625#4 553318155 553318161 247049839 250129553 250129559#0 250129559#1 250129559#2 952379160 407599402 -305048625#2 -305048625#0 -45429554#3 -45429554#2 -45429554#1 -45429554#0 662266021#0 662266021#1 662266021#2 662266021#3 558903818#1 558903818#2 558903818#4 558903818#5 558903816 65089046#0 65089046#1 65089046#2 542537667#0 542537667#1 389763215#0 389763215#1 389763215#2 389763215#3 952365290#0 952365290#1 952365290#2 952365290#3 952365290#4 606417690#2 48143278#0 48143278#1 48143278#2 242293602 404948898 542415587#0 542415587#2 -61429486#2 -61429486#1 -61429486#0 -553343876 61429487 61429490#4 61429490#5 61429490#6 61429488 -61429489#2 -61429489#1 -61429489#0 247314645#1 48144962#0 48144962#2 48144962#3 40668068#8 40668068#9 40668068#11 40668068#12 40668068#13 143471357 143471358#1 143471358#2 143471358#3 143471358#4 143471358#5 143471358#6 143471358#7 143471358#8 143471358#9 143471358#10 143471358#11 143471358#12 1053082143#1 1053082143#2 478516333#1 478516334#0 478516334#1 478516334#2 478516334#3 478516334#4 405152444 405152445#0 405152445#1 478517965#0 480936945#0 480936945#1 480936945#2 480936945#4 480936945#6 403422501#1 403422501#3 403422501#4 403422501#6 403422501#8 403422501#9 403422501#11 403422501#12 403422501#13 403422501#14 403422501#15 403422501#16 552464434 552464437#5 552464437#6 552464437#7 644589572 644589569 403422502#1 403422502#2 403422502#3">
        <stop busStop="17a49046-eaf0-4f43-956f-8460227a7628.0" duration="10" until="0"/> <!-- CIUDADELA KENNEDY -->
        <stop busStop="17a49046-eaf0-4f43-956f-8460227a7628.1" duration="10" until="54"/> <!-- CUARTEL CALDERON -->
        <stop busStop="17a49046-eaf0-4f43-956f-8460227a7628.2" duration="10" until="107"/> <!-- CAZADORES DE LOS RIOS -->
        <stop busStop="17a49046-eaf0-4f43-956f-8460227a7628.3" duration="10" until="172"/> <!-- HORMIAZUAY -->
        <stop busStop="17a49046-eaf0-4f43-956f-8460227a7628.4" duration="10" until="229"/> <!-- URBANIZACION TERRANOVA -->
        <stop busStop="17a49046-eaf0-4f43-956f-8460227a7628.5" duration="10" until="286"/> <!-- URBANIZACION INGENIEROS CIVILES -->
        <stop busStop="17a49046-eaf0-4f43-956f-8460227a7628.6" duration="10" until="324"/> <!-- COMPLEJO BANCO CENTRAL -->
        <stop busStop="17a49046-eaf0-4f43-956f-8460227a7628.7" duration="10" until="363"/> <!-- PUENTE AV. DE LAS AMERICAS -->
        <stop busStop="17a49046-eaf0-4f43-956f-8460227a7628.8" duration="10" until="416"/> <!-- BOMBA DE LOS EUCALIPTOS -->
        <stop busStop="17a49046-eaf0-4f43-956f-8460227a7628.9" duration="10" until="457"/> <!-- CIUDADELA EUCALIPTOS -->
        <stop busStop="17a49046-eaf0-4f43-956f-8460227a7628.10" duration="10" until="491"/> <!-- CIUDADELA RIVERAS DEL TOMEBAMBA -->
        <stop busStop="17a49046-eaf0-4f43-956f-8460227a7628.11" duration="10" until="551"/> <!-- CURTIEMBRE -->
        <stop busStop="17a49046-eaf0-4f43-956f-8460227a7628.12" duration="10" until="631"/> <!-- LOS ANDES -->
        <stop busStop="17a49046-eaf0-4f43-956f-8460227a7628.13" duration="10" until="695"/> <!-- ALTIPLANO -->
        <stop busStop="17a49046-eaf0-4f43-956f-8460227a7628.14" duration="10" until="749"/> <!-- COMPLEJO DEPORTIVO TOTORACOCHA -->
        <stop busStop="17a49046-eaf0-4f43-956f-8460227a7628.15" duration="10" until="797"/> <!-- AV. LOS ANDES Y BUERAN -->
        <stop busStop="17a49046-eaf0-4f43-956f-8460227a7628.16" duration="10" until="838"/> <!-- AV. LOS ANDES Y HURTADO DE MENDOZA -->
        <stop busStop="17a49046-eaf0-4f43-956f-8460227a7628.17" duration="10" until="897"/> <!-- ANTISANA -->
        <stop busStop="17a49046-eaf0-4f43-956f-8460227a7628.18" duration="10" until="947"/> <!-- CORDILLERA -->
        <stop busStop="17a49046-eaf0-4f43-956f-8460227a7628.19" duration="10" until="982"/> <!-- PASEO DE LOS CANARIS -->
        <stop busStop="17a49046-eaf0-4f43-956f-8460227a7628.20" duration="10" until="1031"/> <!-- PARQUE TOSI -->
        <stop busStop="17a49046-eaf0-4f43-956f-8460227a7628.21" duration="10" until="1066"/> <!-- RIO UPANO -->
        <stop busStop="17a49046-eaf0-4f43-956f-8460227a7628.22" duration="10" until="1101"/> <!-- GUAPONDELIG -->
        <stop busStop="17a49046-eaf0-4f43-956f-8460227a7628.23" duration="10" until="1159"/> <!-- TERMINAL -->
        <stop busStop="17a49046-eaf0-4f43-956f-8460227a7628.24" duration="10" until="1212"/> <!-- AV. ESPANA -->
        <stop busStop="17a49046-eaf0-4f43-956f-8460227a7628.25" duration="10" until="1258"/> <!-- VEGA MUNOZ Y MANUEL VEGA -->
        <stop busStop="17a49046-eaf0-4f43-956f-8460227a7628.26" duration="10" until="1317"/> <!-- 9 DE OCTUBRE -->
        <stop busStop="17a49046-eaf0-4f43-956f-8460227a7628.27" duration="10" until="1375"/> <!-- LUIS CORDERO -->
        <stop busStop="17a49046-eaf0-4f43-956f-8460227a7628.28" duration="10" until="1430"/> <!-- MARIA AUXILIADORA -->
        <stop busStop="17a49046-eaf0-4f43-956f-8460227a7628.29" duration="10" until="1484"/> <!-- ESCUELA 3 DE NOVIEMBRE -->
        <stop busStop="17a49046-eaf0-4f43-956f-8460227a7628.30" duration="10" until="1567"/> <!-- MERCADO 3 DE NOVIEMBRE -->
        <stop busStop="17a49046-eaf0-4f43-956f-8460227a7628.31" duration="10" until="1597"/> <!-- SAN SEBASTIAN -->
        <stop busStop="17a49046-eaf0-4f43-956f-8460227a7628.32" duration="10" until="1612"/> <!-- SAN SEBASTIAN -->
        <stop busStop="17a49046-eaf0-4f43-956f-8460227a7628.33" duration="10" until="1645"/> <!-- MIGUEL HEREDIA -->
        <stop busStop="17a49046-eaf0-4f43-956f-8460227a7628.34" duration="10" until="1690"/> <!-- COLEGIO SAGRADOS CORAZONES -->
        <stop busStop="17a49046-eaf0-4f43-956f-8460227a7628.35" duration="10" until="1746"/> <!-- AV. 12 DE ABRIL E IMBABURA -->
        <stop busStop="17a49046-eaf0-4f43-956f-8460227a7628.36" duration="10" until="1829"/> <!-- COLISEO -->
        <stop busStop="17a49046-eaf0-4f43-956f-8460227a7628.37" duration="10" until="1894"/> <!-- EDWIN SACOTO -->
        <stop busStop="17a49046-eaf0-4f43-956f-8460227a7628.38" duration="10" until="1932"/> <!-- REMIGIO CRESPO -->
        <stop busStop="17a49046-eaf0-4f43-956f-8460227a7628.39" duration="10" until="1996"/> <!-- FERIA LIBRE -->
        <stop busStop="17a49046-eaf0-4f43-956f-8460227a7628.40" duration="10" until="2095"/> <!-- AV. CARLOS ARIZAGA VEGA -->
        <stop busStop="17a49046-eaf0-4f43-956f-8460227a7628.41" duration="10" until="2130"/> <!-- PASAJE NICANOR CORDOVA -->
        <stop busStop="17a49046-eaf0-4f43-956f-8460227a7628.42" duration="10" until="2179"/> <!-- REDONDEL CRISTO DEL CONSUELO -->
        <stop busStop="17a49046-eaf0-4f43-956f-8460227a7628.43" duration="10" until="2246"/> <!-- ESTADIO -->
        <stop busStop="17a49046-eaf0-4f43-956f-8460227a7628.44" duration="10" until="2324"/> <!-- VICTOR MANUEL ALBORNOZ -->
        <stop busStop="17a49046-eaf0-4f43-956f-8460227a7628.45" duration="10" until="2403"/> <!-- COLEGIO CIUDAD DE CUENCA -->
        <stop busStop="17a49046-eaf0-4f43-956f-8460227a7628.46" duration="10" until="2463"/> <!-- IGLESIA VIRGEN DEL MILAGRO -->
        <stop busStop="17a49046-eaf0-4f43-956f-8460227a7628.47" duration="10" until="2504"/> <!-- CIUDADELA LOS HORNOS -->
        <stop busStop="17a49046-eaf0-4f43-956f-8460227a7628.48" duration="10" until="2545"/> <!-- ENTRADA SAN JOSE DE BALZAY -->
        <stop busStop="17a49046-eaf0-4f43-956f-8460227a7628.49" duration="10" until="2593"/> <!-- PUENTE DE BALZAY -->
        <stop busStop="17a49046-eaf0-4f43-956f-8460227a7628.50" duration="10" until="2700"/> <!-- ENTRADA CIUDADELA LA CAMPINA -->
        <stop busStop="17a49046-eaf0-4f43-956f-8460227a7628.51" duration="10" until="2759"/> <!-- RIO AMARILLO -->
        <stop busStop="17a49046-eaf0-4f43-956f-8460227a7628.52" duration="10" until="2811"/> <!-- ENTRADA A SAN MIGUEL -->
        <stop busStop="17a49046-eaf0-4f43-956f-8460227a7628.53" duration="10" until="2883"/> <!-- BOMBA DE SANTA MARIA -->
        <stop busStop="17a49046-eaf0-4f43-956f-8460227a7628.54" duration="10" until="2937"/> <!-- SECTOR SANTA MARIA -->
        <stop busStop="17a49046-eaf0-4f43-956f-8460227a7628.55" duration="10" until="2996"/> <!-- ESCUELA JESUS VASQUEZ OCHOA -->
        <stop busStop="17a49046-eaf0-4f43-956f-8460227a7628.56" duration="10" until="3062"/> <!-- 5 ESQUINAS -->
        <stop busStop="17a49046-eaf0-4f43-956f-8460227a7628.57" duration="10" until="3091"/> <!-- ENTRADA A BUENOS AIRES -->
        <stop busStop="17a49046-eaf0-4f43-956f-8460227a7628.58" duration="10" until="3166"/> <!-- SECTOR LAS CABANAS -->
    </route>
    <route id="654d4e9e-0830-4f83-933c-845d271d62bc" edges="-64716896#1 -403422502#2 -403422502#1 -403422502#0 552464440 552464437#1 552464437#2 552464437#3 552464435 -403422501#16 -403422501#15 -403422501#14 -403422501#13 -403422501#12 -403422501#11 -403422501#9 -403422501#8 -403422501#6 -403422501#4 -403422501#3 -403422501#1 -403422501#0 -480936945#4 -480936945#2 -480936945#1 -480936945#0 478516337#1 533782994 480936946 480936950 480936952 480936954#0 480936954#1 480936948#0 480936948#1 480936948#2 480936948#3 478516333#3 478516333#4 478516333#5 1053082142 478516329#1 478516329#2 478516329#3 478516329#4 478516329#5 478516329#6 478516329#7 478516329#8 478516332 480936971 480936970#0 480936970#1 -48144962#3 -48144962#2 -48144962#0 -48144970 61429489#0 61429489#1 61429489#2 61429491 61429490#2 47198319 553343876 61429486#0 61429486#1 61429486#2 -542415587#2 -542415587#1 -314641202#5 -314641202#4 -314641202#3 -314641202#2 -314641202#1 -314641202#0 -897190043#5 -897190043#4 -897190043#3 -897190043#2 -897190043#1 260286330 47198320#0 47198320#2 47198320#4 305048624#0 305048624#1 305048624#2 305048624#3 305048624#5 305048625#0 305048625#2 48903093 247049838#1 247049838#2 360625699 952379159 250129556 553308459 250129550 247049840#0 247049840#1 247049840#2 247049840#3 247049840#4 247049840#5 42456628#5 42456628#6 42456628#1 45429552 42456623#7 42456623#8 42456623#1 311431489#0 311431489#1 40668089#0 40668089#1 40668089#2 399278565 553293154 400051328#0 400051328#1 400051328#3 406261770#0 406261770#1 406261770#2 406261770#3 406261770#4 406261770#5 406261770#6 406261770#7 49217126#0 49217126#1 403869582#0 403869582#1 403869582#2 492443337#2 492443337#3 492443337#4 39525772#8 399285452#0 399285452#1 399285452#2 42195042#0 42195042#2 492478500#1 492443599#1 48500733 48500732 48583900 45421576#2 645041668#0 645041668#1 605352060 605352052#5 605352054 -48552361#1 -48552361#0 -895265101#2 -895265101#1 -895265101#0 -403894673#2 -403894673#1 -403894673#0 -403894674#2 -403894674#1 -403894674#0 -301162960#27 -301162960#26 -301162960#25 -301162960#24 -301162960#23 -301162960#21 -301162960#20 -301162960#19 -301162960#18 -301162960#17 -301162960#16 -301162960#15 -301162960#14 -301162960#13 -301162960#12 -301162960#10 -301162960#9 -301162960#8 47198328#0 47198328#1 47198328#2 47198328#3 47198328#4 47198328#6 47198328#7 48907239#0 48907239#1 428036160#0 428036160#1 428036160#2 428036160#3 428036160#4 428036160#5 428036160#6 428036160#7 428036160#8 428036160#9 428036160#10 428036160#11 428036160#12 428036152 300587960#0 300587960#1 300587960#2 300587960#3 300587960#4 300587960#5 300587960#6 300587960#7 300587960#8 548320690 761596498 49211229#1 542382472 542382467 552440212 42453895#0 42453895#1 1266773298 1266773299 42453895#3 42453895#4 42453895#5 42453895#6 1163706643 49211234#0 49211234#1 42453892#6 42453892#0 42453892#1 42453892#2 42453893 405315551#0 405315551#1 405315550#0 405315550#1 405315550#2 336161700#0 336161700#1 336161700#2 336161700#3 336161700#4 336161700#5 336161700#6 336161700#7 336161700#8">
        <stop busStop="654d4e9e-0830-4f83-933c-845d271d62bc.0" duration="10" until="0"/> <!-- SECTOR LAS CABANAS -->
        <stop busStop="654d4e9e-0830-4f83-933c-845d271d62bc.1" duration="10" until="70"/> <!-- ENTRADA A BUENOS AIRES -->
        <stop busStop="654d4e9e-0830-4f83-933c-845d271d62bc.2" duration="10" until="106"/> <!-- ENTRADA COLEGIO JAVERIANO -->
        <stop busStop="654d4e9e-0830-4f83-933c-845d271d62bc.3" duration="10" until="168"/> <!-- ESCUELA JESUS VASQUEZ OCHOA -->
        <stop busStop="654d4e9e-0830-4f83-933c-845d271d62bc.4" duration="10" until="226"/> <!-- SECTOR SANTA MARIA -->
        <stop busStop="654d4e9e-0830-4f83-933c-845d271d62bc.5" duration="10" until="289"/> <!-- ENTRADA A SAN MIGUEL -->
        <stop busStop="654d4e9e-0830-4f83-933c-845d271d62bc.6" duration="10" until="354"/> <!-- IGLESIA SAN MARTIN -->
        <stop busStop="654d4e9e-0830-4f83-933c-845d271d62bc.7" duration="10" until="396"/> <!-- RIO AMARILLO -->
        <stop busStop="654d4e9e-0830-4f83-933c-845d271d62bc.8" duration="10" until="464"/> <!-- ENTRADA CDLA. LA CAMPINA -->
        <stop busStop="654d4e9e-0830-4f83-933c-845d271d62bc.9" duration="10" until="521"/> <!-- BALZAY BAJO -->
        <stop busStop="654d4e9e-0830-4f83-933c-845d271d62bc.10" duration="10" until="580"/> <!-- PUENTE DE BALZAY -->
        <stop busStop="654d4e9e-0830-4f83-933c-845d271d62bc.11" duration="10" until="626"/> <!-- ENTRADA A SAN JOSE DE BALZAY -->
        <stop busStop="654d4e9e-0830-4f83-933c-845d271d62bc.12" duration="10" until="670"/> <!-- CIUDADELA LOS HORNOS -->
        <stop busStop="654d4e9e-0830-4f83-933c-845d271d62bc.13" duration="10" until="717"/> <!-- IGLESIA VIRGEN DEL MILAGRO -->
        <stop busStop="654d4e9e-0830-4f83-933c-845d271d62bc.14" duration="10" until="763"/> <!-- COLEGIO CUIDAD DE CUENCA -->
        <stop busStop="654d4e9e-0830-4f83-933c-845d271d62bc.15" duration="10" until="867"/> <!-- PUERTAS DEL SOL -->
        <stop busStop="654d4e9e-0830-4f83-933c-845d271d62bc.16" duration="10" until="927"/> <!-- ESTADIO -->
        <stop busStop="654d4e9e-0830-4f83-933c-845d271d62bc.17" duration="10" until="1001"/> <!-- GENERAL ESCANDON -->
        <stop busStop="654d4e9e-0830-4f83-933c-845d271d62bc.18" duration="10" until="1053"/> <!-- FERIA LIBRE -->
        <stop busStop="654d4e9e-0830-4f83-933c-845d271d62bc.19" duration="10" until="1093"/> <!-- EL BATAN Y AV. DE LAS AMERICAS -->
        <stop busStop="654d4e9e-0830-4f83-933c-845d271d62bc.20" duration="10" until="1144"/> <!-- CALLE DEL BATAN -->
        <stop busStop="654d4e9e-0830-4f83-933c-845d271d62bc.21" duration="10" until="1222"/> <!-- COLISEO -->
        <stop busStop="654d4e9e-0830-4f83-933c-845d271d62bc.22" duration="10" until="1296"/> <!-- AV. 12 DE ABRIL E IMBABURA -->
        <stop busStop="654d4e9e-0830-4f83-933c-845d271d62bc.23" duration="10" until="1344"/> <!-- COLEGIO SAGRADOS CORAZONES -->
        <stop busStop="654d4e9e-0830-4f83-933c-845d271d62bc.24" duration="10" until="1400"/> <!-- MIGUEL HEREDIA -->
        <stop busStop="654d4e9e-0830-4f83-933c-845d271d62bc.25" duration="10" until="1433"/> <!-- SIMON BOLIVAR Y MIGUEL VELEZ -->
        <stop busStop="654d4e9e-0830-4f83-933c-845d271d62bc.26" duration="10" until="1473"/> <!-- LAMAR -->
        <stop busStop="654d4e9e-0830-4f83-933c-845d271d62bc.27" duration="10" until="1500"/> <!-- GASPAR SANGURIMA Y MIGUEL VELEZ -->
        <stop busStop="654d4e9e-0830-4f83-933c-845d271d62bc.28" duration="10" until="1576"/> <!-- SANGURIMA Y TARQUI -->
        <stop busStop="654d4e9e-0830-4f83-933c-845d271d62bc.29" duration="10" until="1633"/> <!-- MARIANITAS -->
        <stop busStop="654d4e9e-0830-4f83-933c-845d271d62bc.30" duration="10" until="1670"/> <!-- LUIS CORDERO -->
        <stop busStop="654d4e9e-0830-4f83-933c-845d271d62bc.31" duration="10" until="1753"/> <!-- 9 DE OCTUBRE -->
        <stop busStop="654d4e9e-0830-4f83-933c-845d271d62bc.32" duration="10" until="1846"/> <!-- CHOLA CUENCANA -->
        <stop busStop="654d4e9e-0830-4f83-933c-845d271d62bc.33" duration="10" until="1932"/> <!-- HURTADO DE MENDOZA -->
        <stop busStop="654d4e9e-0830-4f83-933c-845d271d62bc.34" duration="10" until="1975"/> <!-- CEMENTERIO -->
        <stop busStop="654d4e9e-0830-4f83-933c-845d271d62bc.35" duration="10" until="2019"/> <!-- GUAPONDELIG -->
        <stop busStop="654d4e9e-0830-4f83-933c-845d271d62bc.36" duration="10" until="2088"/> <!-- COLEGIO HERLINDA TORAL -->
        <stop busStop="654d4e9e-0830-4f83-933c-845d271d62bc.37" duration="10" until="2138"/> <!-- PASEO DE LOS CANARIS -->
        <stop busStop="654d4e9e-0830-4f83-933c-845d271d62bc.38" duration="10" until="2191"/> <!-- SARAURCO -->
        <stop busStop="654d4e9e-0830-4f83-933c-845d271d62bc.39" duration="10" until="2241"/> <!-- ANTISANA -->
        <stop busStop="654d4e9e-0830-4f83-933c-845d271d62bc.40" duration="10" until="2284"/> <!-- AV. LOS ANDES Y HURTADO DE MENDOZA -->
        <stop busStop="654d4e9e-0830-4f83-933c-845d271d62bc.41" duration="10" until="2327"/> <!-- AV. LOS ANDES Y BUERAN -->
        <stop busStop="654d4e9e-0830-4f83-933c-845d271d62bc.42" duration="10" until="2379"/> <!-- COMPLEJO DEPORTIVO TOTORACOCHA -->
        <stop busStop="654d4e9e-0830-4f83-933c-845d271d62bc.43" duration="10" until="2432"/> <!-- ESCUELA ABELARDO J. CRESPO -->
        <stop busStop="654d4e9e-0830-4f83-933c-845d271d62bc.44" duration="10" until="2514"/> <!-- URBANIZACION RIO SOL -->
        <stop busStop="654d4e9e-0830-4f83-933c-845d271d62bc.45" duration="10" until="2584"/> <!-- CURTIEMBRE -->
        <stop busStop="654d4e9e-0830-4f83-933c-845d271d62bc.46" duration="10" until="2630"/> <!-- CIUDADELA RIVERAS DEL TOMEBAMBA -->
        <stop busStop="654d4e9e-0830-4f83-933c-845d271d62bc.47" duration="10" until="2673"/> <!-- CIUDADELA EUCALIPTOS -->
        <stop busStop="654d4e9e-0830-4f83-933c-845d271d62bc.48" duration="10" until="2719"/> <!-- BOMBA DE LOS EUCALIPTOS -->
        <stop busStop="654d4e9e-0830-4f83-933c-845d271d62bc.49" duration="10" until="2811"/> <!-- CIUDADELA INGENIEROS CIVILES -->
        <stop busStop="654d4e9e-0830-4f83-933c-845d271d62bc.50" duration="10" until="2849"/> <!-- COMPLEJO BANCO CENTRAL -->
        <stop busStop="654d4e9e-0830-4f83-933c-845d271d62bc.51" duration="10" until="2905"/> <!-- URBANIZACION VALLE DE LOS RIOS -->
        <stop busStop="654d4e9e-0830-4f83-933c-845d271d62bc.52" duration="10" until="2939"/> <!-- REDONDEL PANAMERICANA NORTE -->
        <stop busStop="654d4e9e-0830-4f83-933c-845d271d62bc.53" duration="10" until="2973"/> <!-- HORMIAZUAY -->
        <stop busStop="654d4e9e-0830-4f83-933c-845d271d62bc.54" duration="10" until="3047"/> <!-- ESCUELA CAZADORES DE LOS RIOS -->
        <stop busStop="654d4e9e-0830-4f83-933c-845d271d62bc.55" duration="10" until="3097"/> <!-- CUARTEL CALDERON -->
        <stop busStop="654d4e9e-0830-4f83-933c-845d271d62bc.56" duration="10" until="3147"/> <!-- CIUDADELA KENNEDY -->
    </route>
    <route id="3122b916-7166-40b8-8361-34d17e4f3629" edges="559195754#0 559195754#1 559195754#2 559195754#3 559195754#4 82899240#0 82899240#1 940075281 504900870#0 1140439886 301926474#1 301926474#2 301926474#3 301926474#4 74346319#1 74346319#2 876405817 542435229#0 542435229#1 74346256#0 74346256#1 74346256#2 74346256#3 1050900932#0 1050900932#1 1050900932#2 1050900932#3 1050900932#4 1050900932#5 62203345 336161693#16 336161693#17 336161693#18 336161693#19 48552371#2 48552371#3 48552371#4 48552362#0 48552362#1 48552362#2 48552362#3 48552362#4 48552362#5 48552362#6 48552362#7 48552362#8 605352727#0 605352727#1 605352727#2 542434366#1 542434366#2 301146580#0 301146580#1 301146580#3 542434369#0 542434369#1 542434369#2 542434369#3 542434369#4 48500734#8 48500734#9 48500734#10 48500734#1 48500734#2 303057278 48202930 48202929 48202921 389741417#0 389741417#1 389741419 48202923 48202922 47861233 47861236 604749597 47861237 389741418 60204530#0 60204530#1 60204530#2 60204533 50123511 50123512 48100787 992235860 402178667 -329243314#1 -329243314#0 -402178665 402179134 46309331 42453883#4 42453883#5 42453883#6 42453881 338426548 542407414#0 542407414#1 334948974#0 334948974#1 334948974#2 542402347#1 542402347#3 542402347#5 542402344#0 542402344#1 1179685339 334968123#0 334968123#2 542395217#0 542395217#1 542395217#2 48149037#6 48149035 42456628#1 42456628#2 42456628#3 42456625#0 42456625#1 42456625#2 42456625#3 42456625#4 553318155 553318161 247049839 250129553 250129559#0 250129559#1 250129559#2 952379160 407599402 -305048625#2 -305048625#0 -45429554#3 -45429554#2 -45429554#1 -45429554#0 662266021#0 662266021#1 662266021#2 662266021#3 558903818#1 558903818#2 558903818#4 558903818#5 558903816 65089046#0 65089046#1 65089046#2 542537667#0 542537667#1 389763214 532135453#0 532135453#1 532135453#2 532135452 655986901 542537665 389763220#0 389763220#1 389763220#2 389763220#3 605357314#0 605357314#1 542537669#0 542537669#1 116672828#0 116672828#1 116672828#2 552464448#0 552464448#1 552464448#2 552464448#3 552464448#4 552464448#5 552464448#6 552464448#7 473351312 477943135 542537668#0 542537668#1 274816091 274819323#8 274819323#1 274819323#2 274819323#3 274819323#4 274816536#0 274816536#1">
        <stop busStop="3122b916-7166-40b8-8361-34d17e4f3629.0" duration="10" until="0"/> <!-- PARQUE INDUSTRIAL -->
        <stop busStop="3122b916-7166-40b8-8361-34d17e4f3629.1" duration="10" until="122"/> <!-- GASOLINERA SINDICATO DE CHOFERES -->
        <stop busStop="3122b916-7166-40b8-8361-34d17e4f3629.2" duration="10" until="187"/> <!-- PARQUE JACARANDA -->
        <stop busStop="3122b916-7166-40b8-8361-34d17e4f3629.3" duration="10" until="218"/> <!-- PARQUE JACARANDA -->
        <stop busStop="3122b916-7166-40b8-8361-34d17e4f3629.4" duration="10" until="268"/> <!-- EMBOTELLADORA AZUAYA -->
        <stop busStop="3122b916-7166-40b8-8361-34d17e4f3629.5" duration="10" until="351"/> <!-- AV. ESPANA -->
        <stop busStop="3122b916-7166-40b8-8361-34d17e4f3629.6" duration="10" until="415"/> <!-- AEROPUERTO -->
        <stop busStop="3122b916-7166-40b8-8361-34d17e4f3629.7" duration="10" until="466"/> <!-- IECE -->
        <stop busStop="3122b916-7166-40b8-8361-34d17e4f3629.8" duration="10" until="528"/> <!-- TERMINAL TERRESTRE -->
        <stop busStop="3122b916-7166-40b8-8361-34d17e4f3629.9" duration="10" until="593"/> <!-- NUNEZ DE BONILLA -->
        <stop busStop="3122b916-7166-40b8-8361-34d17e4f3629.10" duration="10" until="651"/> <!-- CHOLA CUENCANA -->
        <stop busStop="3122b916-7166-40b8-8361-34d17e4f3629.11" duration="10" until="706"/> <!-- SAN BLAS -->
        <stop busStop="3122b916-7166-40b8-8361-34d17e4f3629.12" duration="10" until="772"/> <!-- ESCUELA TERESA VALSE -->
        <stop busStop="3122b916-7166-40b8-8361-34d17e4f3629.13" duration="10" until="840"/> <!-- BANCO CENTRAL -->
        <stop busStop="3122b916-7166-40b8-8361-34d17e4f3629.14" duration="10" until="915"/> <!-- EL VERGEL -->
        <stop busStop="3122b916-7166-40b8-8361-34d17e4f3629.15" duration="10" until="942"/> <!-- AV. 12 DE ABRIL -->
        <stop busStop="3122b916-7166-40b8-8361-34d17e4f3629.16" duration="10" until="1026"/> <!-- CLINICA SANTA ANA -->
        <stop busStop="3122b916-7166-40b8-8361-34d17e4f3629.17" duration="10" until="1139"/> <!-- PARQUE DE LA MADRE -->
        <stop busStop="3122b916-7166-40b8-8361-34d17e4f3629.18" duration="10" until="1211"/> <!-- PUENTE DEL CENTENARIO -->
        <stop busStop="3122b916-7166-40b8-8361-34d17e4f3629.19" duration="10" until="1277"/> <!-- UNIVERSIDAD DE CUENCA -->
        <stop busStop="3122b916-7166-40b8-8361-34d17e4f3629.20" duration="10" until="1326"/> <!-- PUENTE DEL VADO -->
        <stop busStop="3122b916-7166-40b8-8361-34d17e4f3629.21" duration="10" until="1401"/> <!-- EL BATAN -->
        <stop busStop="17a49046-eaf0-4f43-956f-8460227a7628.35" duration="10" until="1473"/> <!-- AV. 12 DE ABRIL E IMBABURA -->
        <stop busStop="17a49046-eaf0-4f43-956f-8460227a7628.36" duration="10" until="1556"/> <!-- COLISEO -->
        <stop busStop="17a49046-eaf0-4f43-956f-8460227a7628.37" duration="10" until="1621"/> <!-- EDWIN SACOTO -->
        <stop busStop="17a49046-eaf0-4f43-956f-8460227a7628.38" duration="10" until="1659"/> <!-- REMIGIO CRESPO -->
        <stop busStop="17a49046-eaf0-4f43-956f-8460227a7628.39" duration="10" until="1723"/> <!-- FERIA LIBRE -->
        <stop busStop="3122b916-7166-40b8-8361-34d17e4f3629.27" duration="10" until="1821"/> <!-- CREA -->
        <stop busStop="3122b916-7166-40b8-8361-34d17e4f3629.28" duration="10" until="1864"/> <!-- PARQUE EL DRAGON -->
        <stop busStop="3122b916-7166-40b8-8361-34d17e4f3629.29" duration="10" until="1935"/> <!-- ANETA -->
        <stop busStop="3122b916-7166-40b8-8361-34d17e4f3629.30" duration="10" until="2015"/> <!-- MEDIO EJIDO -->
        <stop busStop="3122b916-7166-40b8-8361-34d17e4f3629.31" duration="10" until="2059"/> <!-- AGIP GAS -->
        <stop busStop="3122b916-7166-40b8-8361-34d17e4f3629.32" duration="10" until="2112"/> <!-- RESTAURANTE EL EJIDO -->
        <stop busStop="3122b916-7166-40b8-8361-34d17e4f3629.33" duration="10" until="2181"/> <!-- FABRICA DE ESTUCOS -->
        <stop busStop="3122b916-7166-40b8-8361-34d17e4f3629.34" duration="10" until="2311"/> <!-- ENTRADA A MISICATA -->
    </route>
    <route id="81c05d8d-2035-417c-8c53-e7f1c86c09ca" edges="274816536#1 274816536#2 274816536#3 274816536#4 542542856 542542859 542542857#0 542542857#1 542542857#2 542542869 542542864 542542885#0 542542885#1 542542885#2 542537651 478841481#0 478841481#1 478841481#2 478841481#3 478841481#4 478841481#5 241299689 641603087#2 641603087#3 641603087#4 641603087#6 641603087#7 641603087#8 346345428 29223185#1 29223185#2 29223185#4 29223185#5 529883376#0 529883376#1 529883376#2 529883376#4 529883376#5 416621432#0 416621432#2 509113170 389763216#0 389763216#1 389763216#2 402801839#0 402801839#1 402801839#2 402801839#3 402801839#4 65089047#0 65089047#1 65089047#2 45429554#0 45429554#1 45429554#2 45429554#3 305048625#0 305048625#2 48903093 247049838#1 247049838#2 360625699 952379159 250129556 553308459 250129550 247049840#0 247049840#1 247049840#2 247049840#3 247049840#4 247049840#5 42456628#5 42456628#6 42456628#1 45429552 42456623#7 311431487 740080580#0 740080580#1 740080580#2 740080580#3 740080580#4 740080580#5 740080580#6 311431488 42140278#0 42140278#1 49222372 42143919 49217104#0 49217104#1 42143920 42201285#2 42143918#1 42143918#2 42143918#3 42143918#4 42143918#5 42143918#6 42143918#7 42143918#8 42143918#9 42201279#2 42201279#3 42201279#4 42201279#5 552646975#0 552646975#1 552646975#2 552646975#3 492443599#0 492443599#1 48500733 48500732 305215243 334968132 542434373 430870741#0 430870741#1 430870741#2 430870741#3 430870741#5 430870741#6 301146572#0 301146572#1 301146572#2 605352725#0 605352725#1 605352725#2 605352725#3 605352725#4 605352725#5 605352725#6 605352725#7 605352725#8 605352725#9 48552371#7 48552371#8 48552371#1 48552371#2 303048487 542417208#0 542417208#1 542417208#2 542417188#0 542417188#1 542417188#2 542417188#3 542434378#0 542434378#1 542434378#2 542434378#3 542434378#4 547636651#0 547636651#1 48552801#1 312336558 74346270#0 74346270#1 74346270#2 349866344#1 542435219 876405819#0 876405819#1 339973810#0 339973810#1 74346313#1 74346313#3 74346313#4 74346313#5 312336962#0 399828226#0 399828226#1 399828226#2 399828226#3 -82899240#1 -82899240#0 82899240#0 50365114#0 50365114#1 50365117#0 50365117#1 89964604#8 202044145#0 202044145#1 202044145#2 50365112#0">
        <stop busStop="3122b916-7166-40b8-8361-34d17e4f3629.34" duration="10" until="0"/> <!-- ENTRADA A MISICATA -->
        <stop busStop="81c05d8d-2035-417c-8c53-e7f1c86c09ca.1" duration="10" until="86"/> <!-- FABRICA DE ESTUCOS -->
        <stop busStop="81c05d8d-2035-417c-8c53-e7f1c86c09ca.2" duration="10" until="148"/> <!-- PARQUE INFANTIL -->
        <stop busStop="81c05d8d-2035-417c-8c53-e7f1c86c09ca.3" duration="10" until="260"/> <!-- PRIMERA DE MAYO -->
        <stop busStop="81c05d8d-2035-417c-8c53-e7f1c86c09ca.4" duration="10" until="364"/> <!-- PUENTE YANUNCAY -->
        <stop busStop="81c05d8d-2035-417c-8c53-e7f1c86c09ca.5" duration="10" until="491"/> <!-- PARQUE EL DRAGON -->
        <stop busStop="81c05d8d-2035-417c-8c53-e7f1c86c09ca.6" duration="10" until="587"/> <!-- CREA -->