<?xml version="1.0" encoding="UTF-8"?>

<!-- generated on 2024-07-08 23:27:11.059397 by gtfs2pt.py UNKNOWN
<configuration>
    <gtfs value="Cuenca2022-20220317.zip"/>
    <date value="20231218"/>
    <modes value="bus"/>
    <vtype-output value="pt_vtypes.xml"/>
    <network value="osm.net.xml"/>
</configuration>
-->

<additional xmlns:xsi="http://www.w3.org/2001/XMLSchema-instance" xsi:noNamespaceSchemaLocation="http://sumo.dlr.de/xsd/additional_file.xsd">
    <busStop id="17a49046-eaf0-4f43-956f-8460227a7628.0" lane="-336161700#8_0" startPos="39.67" endPos="52.67" friendlyPos="true" name="CIUDADELA KENNEDY"/>
    <busStop id="17a49046-eaf0-4f43-956f-8460227a7628.1" lane="-336161700#4_0" startPos="0.00" endPos="13.00" friendlyPos="true" name="CUARTEL CALDERON"/>
    <busStop id="17a49046-eaf0-4f43-956f-8460227a7628.2" lane="-405315550#2_0" startPos="4.85" endPos="17.85" friendlyPos="true" name="CAZADORES DE LOS RIOS"/>
    <busStop id="17a49046-eaf0-4f43-956f-8460227a7628.3" lane="42453891#1_0" startPos="54.05" endPos="67.05" friendlyPos="true" name="HORMIAZUAY"/>
    <busStop id="17a49046-eaf0-4f43-956f-8460227a7628.4" lane="1163706644_0" startPos="15.71" endPos="28.71" friendlyPos="true" name="URBANIZACION TERRANOVA"/>
    <busStop id="17a49046-eaf0-4f43-956f-8460227a7628.5" lane="1163706644_0" startPos="337.97" endPos="350.97" friendlyPos="true" name="URBANIZACION INGENIEROS CIVILES"/>
    <busStop id="17a49046-eaf0-4f43-956f-8460227a7628.6" lane="1163706644_0" startPos="554.60" endPos="567.60" friendlyPos="true" name="COMPLEJO BANCO CENTRAL"/>
    <busStop id="17a49046-eaf0-4f43-956f-8460227a7628.7" lane="1163706644_0" startPos="773.71" endPos="786.71" friendlyPos="true" name="PUENTE AV. DE LAS AMERICAS"/>
    <busStop id="17a49046-eaf0-4f43-956f-8460227a7628.8" lane="35906223#1_0" startPos="0.00" endPos="13.00" friendlyPos="true" name="BOMBA DE LOS EUCALIPTOS"/>
    <busStop id="17a49046-eaf0-4f43-956f-8460227a7628.9" lane="425648249#1_0" startPos="10.30" endPos="23.30" friendlyPos="true" name="CIUDADELA EUCALIPTOS"/>
    <busStop id="17a49046-eaf0-4f43-956f-8460227a7628.10" lane="425648249#2_0" startPos="127.07" endPos="140.07" friendlyPos="true" name="CIUDADELA RIVERAS DEL TOMEBAMBA"/>
    <busStop id="17a49046-eaf0-4f43-956f-8460227a7628.11" lane="425648249#4_0" startPos="194.47" endPos="207.47" friendlyPos="true" name="CURTIEMBRE"/>
    <busStop id="17a49046-eaf0-4f43-956f-8460227a7628.12" lane="425648249#4_0" startPos="643.47" endPos="656.47" friendlyPos="true" name="LOS ANDES"/>
    <busStop id="17a49046-eaf0-4f43-956f-8460227a7628.13" lane="416719148#4_0" startPos="5.42" endPos="18.42" friendlyPos="true" name="ALTIPLANO"/>
    <busStop id="17a49046-eaf0-4f43-956f-8460227a7628.14" lane="416719148#8_0" startPos="0.00" endPos="13.00" friendlyPos="true" name="COMPLEJO DEPORTIVO TOTORACOCHA"/>
    <busStop id="17a49046-eaf0-4f43-956f-8460227a7628.15" lane="-47198328#7_0" startPos="24.41" endPos="37.41" friendlyPos="true" name="AV. LOS ANDES Y BUERAN"/>
    <busStop id="17a49046-eaf0-4f43-956f-8460227a7628.16" lane="-47198328#0_0" startPos="8.01" endPos="21.01" friendlyPos="true" name="AV. LOS ANDES Y HURTADO DE MENDOZA"/>
    <busStop id="17a49046-eaf0-4f43-956f-8460227a7628.17" lane="301162960#13_0" startPos="105.53" endPos="118.53" friendlyPos="true" name="ANTISANA"/>
    <busStop id="17a49046-eaf0-4f43-956f-8460227a7628.18" lane="301162960#20_0" startPos="0.00" endPos="13.00" friendlyPos="true" name="CORDILLERA"/>
    <busStop id="17a49046-eaf0-4f43-956f-8460227a7628.19" lane="301162960#26_0" startPos="0.00" endPos="13.00" friendlyPos="true" name="PASEO DE LOS CANARIS"/>
    <busStop id="17a49046-eaf0-4f43-956f-8460227a7628.20" lane="403894673#1_0" startPos="22.16" endPos="35.16" friendlyPos="true" name="PARQUE TOSI"/>
    <busStop id="17a49046-eaf0-4f43-956f-8460227a7628.21" lane="895265101#1_0" startPos="3.42" endPos="16.42" friendlyPos="true" name="RIO UPANO"/>
    <busStop id="17a49046-eaf0-4f43-956f-8460227a7628.22" lane="48552361#1_0" startPos="14.49" endPos="27.49" friendlyPos="true" name="GUAPONDELIG"/>
    <busStop id="17a49046-eaf0-4f43-956f-8460227a7628.23" lane="972644144#0_0" startPos="13.86" endPos="26.86" friendlyPos="true" name="TERMINAL"/>
    <busStop id="17a49046-eaf0-4f43-956f-8460227a7628.24" lane="972644144#4_0" startPos="27.51" endPos="40.51" friendlyPos="true" name="AV. ESPANA"/>
    <busStop id="17a49046-eaf0-4f43-956f-8460227a7628.25" lane="399285450#1_0" startPos="7.51" endPos="20.51" friendlyPos="true" name="VEGA MUNOZ Y MANUEL VEGA"/>
    <busStop id="17a49046-eaf0-4f43-956f-8460227a7628.26" lane="399285450#5_0" startPos="75.83" endPos="88.83" friendlyPos="true" name="9 DE OCTUBRE"/>
    <busStop id="17a49046-eaf0-4f43-956f-8460227a7628.27" lane="35287032#3_0" startPos="17.42" endPos="30.42" friendlyPos="true" name="LUIS CORDERO"/>
    <busStop id="17a49046-eaf0-4f43-956f-8460227a7628.28" lane="35287032#7_0" startPos="21.02" endPos="34.02" friendlyPos="true" name="MARIA AUXILIADORA"/>
    <busStop id="17a49046-eaf0-4f43-956f-8460227a7628.29" lane="35287032#10_0" startPos="15.40" endPos="28.40" friendlyPos="true" name="ESCUELA 3 DE NOVIEMBRE"/>
    <busStop id="17a49046-eaf0-4f43-956f-8460227a7628.30" lane="406261768#4_0" startPos="19.04" endPos="32.04" friendlyPos="true" name="MERCADO 3 DE NOVIEMBRE"/>
    <busStop id="17a49046-eaf0-4f43-956f-8460227a7628.31" lane="49222370#1_0" startPos="60.53" endPos="73.53" friendlyPos="true" name="SAN SEBASTIAN"/>
    <busStop id="17a49046-eaf0-4f43-956f-8460227a7628.32" lane="42456620#0_0" startPos="21.22" endPos="34.22" friendlyPos="true" name="SAN SEBASTIAN"/>
    <busStop id="17a49046-eaf0-4f43-956f-8460227a7628.33" lane="42456620#2_0" startPos="0.00" endPos="13.00" friendlyPos="true" name="MIGUEL HEREDIA"/>
    <busStop id="17a49046-eaf0-4f43-956f-8460227a7628.34" lane="397464990#1_0" startPos="0.00" endPos="13.00" friendlyPos="true" name="COLEGIO SAGRADOS CORAZONES"/>
    <busStop id="17a49046-eaf0-4f43-956f-8460227a7628.35" lane="42456625#2_0" startPos="0.00" endPos="13.00" friendlyPos="true" name="AV. 12 DE ABRIL E IMBABURA"/>
    <busStop id="17a49046-eaf0-4f43-956f-8460227a7628.36" lane="250129559#2_0" startPos="58.45" endPos="71.45" friendlyPos="true" name="COLISEO"/>
    <busStop id="17a49046-eaf0-4f43-956f-8460227a7628.37" lane="-305048625#0_0" startPos="29.44" endPos="42.44" friendlyPos="true" name="EDWIN SACOTO"/>
    <busStop id="17a49046-eaf0-4f43-956f-8460227a7628.38" lane="-45429554#0_0" startPos="15.39" endPos="28.39" friendlyPos="true" name="REMIGIO CRESPO"/>
    <busStop id="17a49046-eaf0-4f43-956f-8460227a7628.39" lane="65089046#1_0" startPos="32.79" endPos="45.79" friendlyPos="true" name="FERIA LIBRE"/>
    <busStop id="17a49046-eaf0-4f43-956f-8460227a7628.40" lane="952365290#3_0" startPos="14.12" endPos="27.12" friendlyPos="true" name="AV. CARLOS ARIZAGA VEGA"/>
    <busStop id="17a49046-eaf0-4f43-956f-8460227a7628.41" lane="606417690#2_0" startPos="40.06" endPos="53.06" friendlyPos="true" name="PASAJE NICANOR CORDOVA"/>
    <busStop id="17a49046-eaf0-4f43-956f-8460227a7628.42" lane="48143278#1_0" startPos="2.88" endPos="15.88" friendlyPos="true" name="REDONDEL CRISTO DEL CONSUELO"/>
    <busStop id="17a49046-eaf0-4f43-956f-8460227a7628.43" lane="-61429486#1_0" startPos="0.00" endPos="13.00" friendlyPos="true" name="ESTADIO"/>
    <busStop id="17a49046-eaf0-4f43-956f-8460227a7628.44" lane="-61429489#2_0" startPos="72.57" endPos="85.57" friendlyPos="true" name="VICTOR MANUEL ALBORNOZ"/>
    <busStop id="17a49046-eaf0-4f43-956f-8460227a7628.45" lane="48144962#3_0" startPos="13.39" endPos="26.39" friendlyPos="true" name="COLEGIO CIUDAD DE CUENCA"/>
    <busStop id="17a49046-eaf0-4f43-956f-8460227a7628.46" lane="40668068#12_0" startPos="25.91" endPos="38.91" friendlyPos="true" name="IGLESIA VIRGEN DEL MILAGRO"/>
    <busStop id="17a49046-eaf0-4f43-956f-8460227a7628.47" lane="143471358#1_0" startPos="5.87" endPos="18.87" friendlyPos="true" name="CIUDADELA LOS HORNOS"/>
    <busStop id="17a49046-eaf0-4f43-956f-8460227a7628.48" lane="143471358#5_0" startPos="0.92" endPos="13.92" friendlyPos="true" name="ENTRADA SAN JOSE DE BALZAY"/>
    <busStop id="17a49046-eaf0-4f43-956f-8460227a7628.49" lane="143471358#12_0" startPos="18.59" endPos="31.59" friendlyPos="true" name="PUENTE DE BALZAY"/>
    <busStop id="17a49046-eaf0-4f43-956f-8460227a7628.50" lane="478516334#4_0" startPos="10.21" endPos="23.21" friendlyPos="true" name="ENTRADA CIUDADELA LA CAMPINA"/>
    <busStop id="17a49046-eaf0-4f43-956f-8460227a7628.51" lane="405152444_0" startPos="292.22" endPos="305.22" friendlyPos="true" name="RIO AMARILLO"/>
    <busStop id="17a49046-eaf0-4f43-956f-8460227a7628.52" lane="405152445#1_0" startPos="73.38" endPos="86.38" friendlyPos="true" name="ENTRADA A SAN MIGUEL"/>
    <busStop id="17a49046-eaf0-4f43-956f-8460227a7628.53" lane="480936945#6_0" startPos="1.45" endPos="14.45" friendlyPos="true" name="BOMBA DE SANTA MARIA"/>
    <busStop id="17a49046-eaf0-4f43-956f-8460227a7628.54" lane="403422501#8_0" startPos="34.70" endPos="47.70" friendlyPos="true" name="SECTOR SANTA MARIA"/>
    <busStop id="17a49046-eaf0-4f43-956f-8460227a7628.55" lane="403422501#15_0" startPos="0.74" endPos="13.74" friendlyPos="true" name="ESCUELA JESUS VASQUEZ OCHOA"/>
    <busStop id="17a49046-eaf0-4f43-956f-8460227a7628.56" lane="644589569_0" startPos="0.00" endPos="13.00" friendlyPos="true" name="5 ESQUINAS"/>
    <busStop id="17a49046-eaf0-4f43-956f-8460227a7628.57" lane="644589569_0" startPos="161.07" endPos="174.07" friendlyPos="true" name="ENTRADA A BUENOS AIRES"/>
    <busStop id="17a49046-eaf0-4f43-956f-8460227a7628.58" lane="403422502#3_0" startPos="299.61" endPos="312.61" friendlyPos="true" name="SECTOR LAS CABANAS"/>
    <busStop id="654d4e9e-0830-4f83-933c-845d271d62bc.0" lane="-64716896#1_0" startPos="70.95" endPos="83.95" friendlyPos="true" name="SECTOR LAS CABANAS"/>
    <busStop id="654d4e9e-0830-4f83-933c-845d271d62bc.1" lane="-403422502#0_0" startPos="0.00" endPos="13.00" friendlyPos="true" name="ENTRADA A BUENOS AIRES"/>
    <busStop id="654d4e9e-0830-4f83-933c-845d271d62bc.2" lane="552464440_0" startPos="0.00" endPos="13.00" friendlyPos="true" name="ENTRADA COLEGIO JAVERIANO"/>
    <busStop id="654d4e9e-0830-4f83-933c-845d271d62bc.3" lane="-403422501#15_0" startPos="217.73" endPos="230.73" friendlyPos="true" name="ESCUELA JESUS VASQUEZ OCHOA"/>
    <busStop id="654d4e9e-0830-4f83-933c-845d271d62bc.4" lane="-403422501#8_0" startPos="0.00" endPos="13.00" friendlyPos="true" name="SECTOR SANTA MARIA"/>
    <busStop id="654d4e9e-0830-4f83-933c-845d271d62bc.5" lane="-480936945#4_0" startPos="0.00" endPos="13.00" friendlyPos="true" name="ENTRADA A SAN MIGUEL"/>
    <busStop id="654d4e9e-0830-4f83-933c-845d271d62bc.6" lane="533782994_0" startPos="0.00" endPos="13.00" friendlyPos="true" name="IGLESIA SAN MARTIN"/>
    <busStop id="654d4e9e-0830-4f83-933c-845d271d62bc.7" lane="480936952_0" startPos="5.39" endPos="18.39" friendlyPos="true" name="RIO AMARILLO"/>
    <busStop id="654d4e9e-0830-4f83-933c-845d271d62bc.8" lane="480936948#1_0" startPos="21.25" endPos="34.25" friendlyPos="true" name="ENTRADA CDLA. LA CAMPINA"/>
    <busStop id="654d4e9e-0830-4f83-933c-845d271d62bc.9" lane="480936948#2_0" startPos="204.33" endPos="217.33" friendlyPos="true" name="BALZAY BAJO"/>
    <busStop id="654d4e9e-0830-4f83-933c-845d271d62bc.10" lane="1053082142_0" startPos="50.91" endPos="63.91" friendlyPos="true" name="PUENTE DE BALZAY"/>
    <busStop id="654d4e9e-0830-4f83-933c-845d271d62bc.11" lane="478516329#2_0" startPos="0.00" endPos="13.00" friendlyPos="true" name="ENTRADA A SAN JOSE DE BALZAY"/>
    <busStop id="654d4e9e-0830-4f83-933c-845d271d62bc.12" lane="478516329#6_0" startPos="38.08" endPos="51.08" friendlyPos="true" name="CIUDADELA LOS HORNOS"/>
    <busStop id="654d4e9e-0830-4f83-933c-845d271d62bc.13" lane="480936970#0_0" startPos="37.61" endPos="50.61" friendlyPos="true" name="IGLESIA VIRGEN DEL MILAGRO"/>
    <busStop id="654d4e9e-0830-4f83-933c-845d271d62bc.14" lane="-48144962#3_0" startPos="7.56" endPos="20.56" friendlyPos="true" name="COLEGIO CUIDAD DE CUENCA"/>
    <busStop id="654d4e9e-0830-4f83-933c-845d271d62bc.15" lane="61429491_0" startPos="21.51" endPos="34.51" friendlyPos="true" name="PUERTAS DEL SOL"/>
    <busStop id="654d4e9e-0830-4f83-933c-845d271d62bc.16" lane="61429486#2_0" startPos="50.54" endPos="63.54" friendlyPos="true" name="ESTADIO"/>
    <busStop id="654d4e9e-0830-4f83-933c-845d271d62bc.17" lane="-314641202#0_0" startPos="0.00" endPos="13.00" friendlyPos="true" name="GENERAL ESCANDON"/>
    <busStop id="654d4e9e-0830-4f83-933c-845d271d62bc.18" lane="-897190043#2_0" startPos="6.32" endPos="19.32" friendlyPos="true" name="FERIA LIBRE"/>
    <busStop id="654d4e9e-0830-4f83-933c-845d271d62bc.19" lane="47198320#4_0" startPos="23.42" endPos="36.42" friendlyPos="true" name="EL BATAN Y AV. DE LAS AMERICAS"/>
    <busStop id="654d4e9e-0830-4f83-933c-845d271d62bc.20" lane="305048625#0_0" startPos="61.44" endPos="74.44" friendlyPos="true" name="CALLE DEL BATAN"/>
    <busStop id="654d4e9e-0830-4f83-933c-845d271d62bc.21" lane="250129556_0" startPos="3.00" endPos="16.00" friendlyPos="true" name="COLISEO"/>
    <busStop id="654d4e9e-0830-4f83-933c-845d271d62bc.22" lane="247049840#2_0" startPos="47.11" endPos="60.11" friendlyPos="true" name="AV. 12 DE ABRIL E IMBABURA"/>
    <busStop id="654d4e9e-0830-4f83-933c-845d271d62bc.23" lane="311431489#0_0" startPos="0.00" endPos="13.00" friendlyPos="true" name="COLEGIO SAGRADOS CORAZONES"/>
    <busStop id="654d4e9e-0830-4f83-933c-845d271d62bc.24" lane="40668089#1_0" startPos="11.04" endPos="24.04" friendlyPos="true" name="MIGUEL HEREDIA"/>
    <busStop id="654d4e9e-0830-4f83-933c-845d271d62bc.25" lane="399278565_0" startPos="65.19" endPos="78.19" friendlyPos="true" name="SIMON BOLIVAR Y MIGUEL VELEZ"/>
    <busStop id="654d4e9e-0830-4f83-933c-845d271d62bc.26" lane="400051328#1_0" startPos="65.30" endPos="78.30" friendlyPos="true" name="LAMAR"/>
    <busStop id="654d4e9e-0830-4f83-933c-845d271d62bc.27" lane="406261770#0_0" startPos="0.00" endPos="13.00" friendlyPos="true" name="GASPAR SANGURIMA Y MIGUEL VELEZ"/>
    <busStop id="654d4e9e-0830-4f83-933c-845d271d62bc.28" lane="406261770#5_0" startPos="56.33" endPos="69.33" friendlyPos="true" name="SANGURIMA Y TARQUI"/>
    <busStop id="654d4e9e-0830-4f83-933c-845d271d62bc.29" lane="49217126#1_0" startPos="16.00" endPos="29.00" friendlyPos="true" name="MARIANITAS"/>
    <busStop id="654d4e9e-0830-4f83-933c-845d271d62bc.30" lane="403869582#1_0" startPos="52.21" endPos="65.21" friendlyPos="true" name="LUIS CORDERO"/>
    <busStop id="654d4e9e-0830-4f83-933c-845d271d62bc.31" lane="39525772#8_0" startPos="67.41" endPos="80.41" friendlyPos="true" name="9 DE OCTUBRE"/>
    <busStop id="654d4e9e-0830-4f83-933c-845d271d62bc.32" lane="492443599#1_0" startPos="32.26" endPos="45.26" friendlyPos="true" name="CHOLA CUENCANA"/>
    <busStop id="654d4e9e-0830-4f83-933c-845d271d62bc.33" lane="45421576#2_0" startPos="80.47" endPos="93.47" friendlyPos="true" name="HURTADO DE MENDOZA"/>
    <busStop id="654d4e9e-0830-4f83-933c-845d271d62bc.34" lane="645041668#1_0" startPos="34.83" endPos="47.83" friendlyPos="true" name="CEMENTERIO"/>
    <busStop id="654d4e9e-0830-4f83-933c-845d271d62bc.35" lane="-48552361#1_0" startPos="13.67" endPos="26.67" friendlyPos="true" name="GUAPONDELIG"/>
    <busStop id="654d4e9e-0830-4f83-933c-845d271d62bc.36" lane="-403894673#2_0" startPos="8.49" endPos="21.49" friendlyPos="true" name="COLEGIO HERLINDA TORAL"/>
    <busStop id="654d4e9e-0830-4f83-933c-845d271d62bc.37" lane="-301162960#26_0" startPos="5.96" endPos="18.96" friendlyPos="true" name="PASEO DE LOS CANARIS"/>
    <busStop id="654d4e9e-0830-4f83-933c-845d271d62bc.38" lane="-301162960#17_0" startPos="0.00" endPos="13.00" friendlyPos="true" name="SARAURCO"/>
    <busStop id="654d4e9e-0830-4f83-933c-845d271d62bc.39" lane="-301162960#13_0" startPos="69.95" endPos="82.95" friendlyPos="true" name="ANTISANA"/>
    <busStop id="654d4e9e-0830-4f83-933c-845d271d62bc.40" lane="47198328#0_0" startPos="20.72" endPos="33.72" friendlyPos="true" name="AV. LOS ANDES Y HURTADO DE MENDOZA"/>
    <busStop id="654d4e9e-0830-4f83-933c-845d271d62bc.41" lane="47198328#7_0" startPos="20.12" endPos="33.12" friendlyPos="true" name="AV. LOS ANDES Y BUERAN"/>
    <busStop id="654d4e9e-0830-4f83-933c-845d271d62bc.42" lane="428036160#2_0" startPos="2.38" endPos="15.38" friendlyPos="true" name="COMPLEJO DEPORTIVO TOTORACOCHA"/>
    <busStop id="654d4e9e-0830-4f83-933c-845d271d62bc.43" lane="428036160#6_0" startPos="9.81" endPos="22.81" friendlyPos="true" name="ESCUELA ABELARDO J. CRESPO"/>
    <busStop id="654d4e9e-0830-4f83-933c-845d271d62bc.44" lane="300587960#0_0" startPos="134.25" endPos="147.25" friendlyPos="true" name="URBANIZACION RIO SOL"/>
    <busStop id="654d4e9e-0830-4f83-933c-845d271d62bc.45" lane="300587960#2_0" startPos="0.00" endPos="13.00" friendlyPos="true" name="CURTIEMBRE"/>
    <busStop id="654d4e9e-0830-4f83-933c-845d271d62bc.46" lane="300587960#4_0" startPos="4.99" endPos="17.99" friendlyPos="true" name="CIUDADELA RIVERAS DEL TOMEBAMBA"/>
    <busStop id="654d4e9e-0830-4f83-933c-845d271d62bc.47" lane="300587960#8_0" startPos="10.35" endPos="23.35" friendlyPos="true" name="CIUDADELA EUCALIPTOS"/>
    <busStop id="654d4e9e-0830-4f83-933c-845d271d62bc.48" lane="542382472_0" startPos="0.00" endPos="13.00" friendlyPos="true" name="BOMBA DE LOS EUCALIPTOS"/>
    <busStop id="654d4e9e-0830-4f83-933c-845d271d62bc.49" lane="1266773298_0" startPos="0.00" endPos="13.00" friendlyPos="true" name="CIUDADELA INGENIEROS CIVILES"/>
    <busStop id="654d4e9e-0830-4f83-933c-845d271d62bc.50" lane="42453895#4_0" startPos="24.98" endPos="37.98" friendlyPos="true" name="COMPLEJO BANCO CENTRAL"/>
    <busStop id="654d4e9e-0830-4f83-933c-845d271d62bc.51" lane="42453895#6_0" startPos="81.66" endPos="94.66" friendlyPos="true" name="URBANIZACION VALLE DE LOS RIOS"/>
    <busStop id="654d4e9e-0830-4f83-933c-845d271d62bc.52" lane="49211234#0_0" startPos="43.16" endPos="56.16" friendlyPos="true" name="REDONDEL PANAMERICANA NORTE"/>
    <busStop id="654d4e9e-0830-4f83-933c-845d271d62bc.53" lane="42453893_0" startPos="45.31" endPos="58.31" friendlyPos="true" name="HORMIAZUAY"/>
    <busStop id="654d4e9e-0830-4f83-933c-845d271d62bc.54" lane="336161700#0_0" startPos="0.67" endPos="13.67" friendlyPos="true" name="ESCUELA CAZADORES DE LOS RIOS"/>
    <busStop id="654d4e9e-0830-4f83-933c-845d271d62bc.55" lane="336161700#5_0" startPos="0.00" endPos="13.00" friendlyPos="true" name="CUARTEL CALDERON"/>
    <busStop id="654d4e9e-0830-4f83-933c-845d271d62bc.56" lane="336161700#8_0" startPos="22.14" endPos="35.14" friendlyPos="true" name="CIUDADELA KENNEDY"/>
    <busStop id="3122b916-7166-40b8-8361-34d17e4f3629.0" lane="559195754#0_0" startPos="0.28" endPos="13.28" friendlyPos="true" name="PARQUE INDUSTRIAL"/>
    <busStop id="3122b916-7166-40b8-8361-34d17e4f3629.1" lane="301926474#2_0" startPos="0.00" endPos="13.00" friendlyPos="true" name="GASOLINERA SINDICATO DE CHOFERES"/>
    <busStop id="3122b916-7166-40b8-8361-34d17e4f3629.2" lane="74346319#1_0" startPos="163.65" endPos="176.65" friendlyPos="true" name="PARQUE JACARANDA"/>
    <busStop id="3122b916-7166-40b8-8361-34d17e4f3629.3" lane="876405817_0" startPos="34.63" endPos="47.63" friendlyPos="true" name="PARQUE JACARANDA"/>
    <busStop id="3122b916-7166-40b8-8361-34d17e4f3629.4" lane="74346256#3_0" startPos="49.64" endPos="62.64" friendlyPos="true" name="EMBOTELLADORA AZUAYA"/>
    <busStop id="3122b916-7166-40b8-8361-34d17e4f3629.5" lane="62203345_0" startPos="44.71" endPos="57.71" friendlyPos="true" name="AV. ESPANA"/>
    <busStop id="3122b916-7166-40b8-8361-34d17e4f3629.6" lane="48552362#1_0" startPos="21.11" endPos="34.11" friendlyPos="true" name="AEROPUERTO"/>
    <busStop id="3122b916-7166-40b8-8361-34d17e4f3629.7" lane="48552362#8_0" startPos="6.10" endPos="19.10" friendlyPos="true" name="IECE"/>
    <busStop id="3122b916-7166-40b8-8361-34d17e4f3629.8" lane="301146580#1_0" startPos="81.43" endPos="94.43" friendlyPos="true" name="TERMINAL TERRESTRE"/>
    <busStop id="3122b916-7166-40b8-8361-34d17e4f3629.9" lane="542434369#1_0" startPos="150.56" endPos="163.56" friendlyPos="true" name="NUNEZ DE BONILLA"/>
    <busStop id="3122b916-7166-40b8-8361-34d17e4f3629.10" lane="48202930_0" startPos="72.35" endPos="85.35" friendlyPos="true" name="CHOLA CUENCANA"/>
    <busStop id="3122b916-7166-40b8-8361-34d17e4f3629.11" lane="389741417#1_0" startPos="31.74" endPos="44.74" friendlyPos="true" name="SAN BLAS"/>
    <busStop id="3122b916-7166-40b8-8361-34d17e4f3629.12" lane="48202922_0" startPos="66.15" endPos="79.15" friendlyPos="true" name="ESCUELA TERESA VALSE"/>
    <busStop id="3122b916-7166-40b8-8361-34d17e4f3629.13" lane="60204530#0_0" startPos="7.05" endPos="20.05" friendlyPos="true" name="BANCO CENTRAL"/>
    <busStop id="3122b916-7166-40b8-8361-34d17e4f3629.14" lane="48100787_0" startPos="0.00" endPos="13.00" friendlyPos="true" name="EL VERGEL"/>
    <busStop id="3122b916-7166-40b8-8361-34d17e4f3629.15" lane="-329243314#1_0" startPos="0.00" endPos="13.00" friendlyPos="true" name="AV. 12 DE ABRIL"/>
    <busStop id="3122b916-7166-40b8-8361-34d17e4f3629.16" lane="-402178665_0" startPos="292.90" endPos="305.90" friendlyPos="true" name="CLINICA SANTA ANA"/>
    <busStop id="3122b916-7166-40b8-8361-34d17e4f3629.17" lane="334948974#0_0" startPos="92.05" endPos="105.05" friendlyPos="true" name="PARQUE DE LA MADRE"/>
    <busStop id="3122b916-7166-40b8-8361-34d17e4f3629.18" lane="542402347#1_0" startPos="2.30" endPos="15.30" friendlyPos="true" name="PUENTE DEL CENTENARIO"/>
    <busStop id="3122b916-7166-40b8-8361-34d17e4f3629.19" lane="542402344#1_0" startPos="21.92" endPos="34.92" friendlyPos="true" name="UNIVERSIDAD DE CUENCA"/>
    <busStop id="3122b916-7166-40b8-8361-34d17e4f3629.20" lane="542395217#0_0" startPos="42.93" endPos="55.93" friendlyPos="true" name="PUENTE DEL VADO"/>
    <busStop id="3122b916-7166-40b8-8361-34d17e4f3629.21" lane="48149035_0" startPos="126.90" endPos="139.90" friendlyPos="true" name="EL BATAN"/>
    <busStop id="3122b916-7166-40b8-8361-34d17e4f3629.27" lane="532135452_0" startPos="17.75" endPos="30.75" friendlyPos="true" name="CREA"/>
    <busStop id="3122b916-7166-40b8-8361-34d17e4f3629.28" lane="389763220#1_0" startPos="9.26" endPos="22.26" friendlyPos="true" name="PARQUE EL DRAGON"/>
    <busStop id="3122b916-7166-40b8-8361-34d17e4f3629.29" lane="605357314#1_0" startPos="71.62" endPos="84.62" friendlyPos="true" name="ANETA"/>
    <busStop id="3122b916-7166-40b8-8361-34d17e4f3629.30" lane="116672828#1_0" startPos="7.59" endPos="20.59" friendlyPos="true" name="MEDIO EJIDO"/>
    <busStop id="3122b916-7166-40b8-8361-34d17e4f3629.31" lane="552464448#0_0" startPos="0.00" endPos="13.00" friendlyPos="true" name="AGIP GAS"/>
    <busStop id="3122b916-7166-40b8-8361-34d17e4f3629.32" lane="552464448#3_0" startPos="4.49" endPos="17.49" friendlyPos="true" name="RESTAURANTE EL EJIDO"/>
    <busStop id="3122b916-7166-40b8-8361-34d17e4f3629.33" lane="552464448#6_0" startPos="126.61" endPos="139.61" friendlyPos="true" name="FABRICA DE ESTUCOS"/>
    <busStop id="3122b916-7166-40b8-8361-34d17e4f3629.34" lane="274816536#1_0" startPos="4.62" endPos="17.62" friendlyPos="true" name="ENTRADA A MISICATA"/>
    <busStop id="81c05d8d-2035-417c-8c53-e7f1c86c09ca.1" lane="542542859_0" startPos="0.00" endPos="13.00" friendlyPos="true" name="FABRICA DE ESTUCOS">
        <access friendlyPos="true" lane="-242293617#2_0" pos="15.25" length="63.99"/>
        <access friendlyPos="true" lane="-605087255#0_0" pos="32.12" length="26.95"/>
        <access friendlyPos="true" lane="-605087255#1_0" pos="86.53" length="78.42"/>
        <access friendlyPos="true" lane="242293617#2_0" pos="47.95" length="59.19"/>
        <access friendlyPos="true" lane="282993246_0" pos="7.92" length="80.45"/>
        <access friendlyPos="true" lane="542542855_1" pos="0.00" length="44.74"/>
        <access friendlyPos="true" lane="542542856_0" pos="166.99" length="40.30"/>
        <access friendlyPos="true" lane="542542861#1_1" pos="130.98" length="23.09"/>
        <access friendlyPos="true" lane="605087255#0_0" pos="0.00" length="31.72"/>
        <access friendlyPos="true" lane="605087255#1_0" pos="0.00" length="80.11"/>
    </busStop>
    <busStop id="81c05d8d-2035-417c-8c53-e7f1c86c09ca.2" lane="542542869_0" startPos="47.40" endPos="60.40" friendlyPos="true" name="PARQUE INFANTIL"/>
    <busStop id="81c05d8d-2035-417c-8c53-e7f1c86c09ca.3" lane="478841481#0_0" startPos="14.94" endPos="27.94" friendlyPos="true" name="PRIMERA DE MAYO"/>
    <busStop id="81c05d8d-2035-417c-8c53-e7f1c86c09ca.4" lane="346345428_0" startPos="44.73" endPos="57.73" friendlyPos="true" name="PUENTE YANUNCAY"/>
    <busStop id="81c05d8d-2035-417c-8c53-e7f1c86c09ca.5" lane="529883376#4_0" startPos="0.00" endPos="13.00" friendlyPos="true" name="PARQUE EL DRAGON"/>
    <busStop id="81c05d8d-2035-417c-8c53-e7f1c86c09ca.6" lane="416621432#0_0" startPos="18.10" endPos="31.10" friendlyPos="true" name="CREA"/>
    <busStop id="81c05d8d-2035-417c-8c53-e7f1c86c09ca.7" lane="402801839#0_0" startPos="7.71" endPos="20.71" friendlyPos="true" name="FERIA LIBRE"/>
    <busStop id="81c05d8d-2035-417c-8c53-e7f1c86c09ca.11" lane="311431487_0" startPos="18.73" endPos="31.73" friendlyPos="true" name="REDONDEL DEL OTORONGO"/>
    <busStop id="81c05d8d-2035-417c-8c53-e7f1c86c09ca.12" lane="740080580#3_0" startPos="30.36" endPos="43.36" friendlyPos="true" name="CIUDADELA LOS ARUPOS"/>
    <busStop id="81c05d8d-2035-417c-8c53-e7f1c86c09ca.13" lane="311431488_0" startPos="1.43" endPos="14.43" friendlyPos="true" name="PUENTE DEL VADO"/>
    <busStop id="81c05d8d-2035-417c-8c53-e7f1c86c09ca.14" lane="42143919_0" startPos="24.65" endPos="37.65" friendlyPos="true" name="MERCADO 10 DE AGOSTO"/>
    <busStop id="81c05d8d-2035-417c-8c53-e7f1c86c09ca.15" lane="42143918#1_0" startPos="79.55" endPos="92.55" friendlyPos="true" name="JUAN JARAMILLO Y BENIGNO MALO"/>
    <busStop id="81c05d8d-2035-417c-8c53-e7f1c86c09ca.16" lane="42143918#5_0" startPos="23.14" endPos="36.14" friendlyPos="true" name="JUAN JARAMILLO Y BORRERO"/>
    <busStop id="81c05d8d-2035-417c-8c53-e7f1c86c09ca.17" lane="42143918#9_0" startPos="21.64" endPos="34.64" friendlyPos="true" name="VARGAS MACHUCA Y JUAN JARAMILLO"/>
    <busStop id="81c05d8d-2035-417c-8c53-e7f1c86c09ca.18" lane="42201279#4_0" startPos="0.96" endPos="13.96" friendlyPos="true" name="PARQUE VICTOR J. CUESTA"/>
    <busStop id="81c05d8d-2035-417c-8c53-e7f1c86c09ca.19" lane="552646975#0_0" startPos="66.99" endPos="79.99" friendlyPos="true" name="SALESIANAS"/>
    <busStop id="81c05d8d-2035-417c-8c53-e7f1c86c09ca.20" lane="552646975#3_0" startPos="70.64" endPos="83.64" friendlyPos="true" name="LA ROTARY"/>
    <busStop id="81c05d8d-2035-417c-8c53-e7f1c86c09ca.22" lane="430870741#3_0" startPos="52.37" endPos="65.37" friendlyPos="true" name="TERMINAL TERRESTRE"/>
    <busStop id="81c05d8d-2035-417c-8c53-e7f1c86c09ca.23" lane="605352725#1_0" startPos="0.00" endPos="13.00" friendlyPos="true" name="IECE"/>
    <busStop id="81c05d8d-2035-417c-8c53-e7f1c86c09ca.24" lane="605352725#9_0" startPos="39.34" endPos="52.34" friendlyPos="true" name="AEROPUERTO"/>
    <busStop id="81c05d8d-2035-417c-8c53-e7f1c86c09ca.25" lane="542417208#1_0" startPos="0.00" endPos="13.00" friendlyPos="true" name="AV.GIL RAMIREZ DAVALOS"/>
    <busStop id="81c05d8d-2035-417c-8c53-e7f1c86c09ca.26" lane="542434378#0_0" startPos="7.05" endPos="20.05" friendlyPos="true" name="EMBOTELLADORA AZUAYA"/>
    <busStop id="81c05d8d-2035-417c-8c53-e7f1c86c09ca.27" lane="542434378#4_0" startPos="22.18" endPos="35.18" friendlyPos="true" name="GASOLINERA"/>
    <busStop id="81c05d8d-2035-417c-8c53-e7f1c86c09ca.28" lane="876405819#0_0" startPos="20.39" endPos="33.39" friendlyPos="true" name="PARQUE JACARANDA">
        <access friendlyPos="true" lane="-1180125914_0" pos="29.64" length="93.41"/>
        <access friendlyPos="true" lane="-86143893#0_0" pos="22.86" length="57.50"/>
        <access friendlyPos="true" lane="1180125914_0" pos="0.00" length="97.82"/>
        <access friendlyPos="true" lane="542421942#1_0" pos="36.86" length="88.93"/>
        <access friendlyPos="true" lane="542435219_0" pos="75.55" length="60.48"/>
        <access friendlyPos="true" lane="74346319#1_2" pos="219.69" length="39.01"/>
        <access friendlyPos="true" lane="74346319#2_2" pos="0.00" length="38.88"/>
        <access friendlyPos="true" lane="86143893#0_0" pos="0.00" length="55.64"/>
        <access friendlyPos="true" lane="876405817_1" pos="0.00" length="76.73"/>
        <access friendlyPos="true" lane="876405820_2" pos="0.00" length="92.85"/>
    </busStop>
    <busStop id="81c05d8d-2035-417c-8c53-e7f1c86c09ca.29" lane="-82899240#1_0" startPos="0.00" endPos="13.00" friendlyPos="true" name="Calle de los X Juegos Bolivarianos &amp; del Torril"/>
    <busStop id="81c05d8d-2035-417c-8c53-e7f1c86c09ca.30" lane="-82899240#0_0" startPos="99.49" endPos="112.48" friendlyPos="true" name="PLATERIA NARVAEZ"/>
    <busStop id="81c05d8d-2035-417c-8c53-e7f1c86c09ca.31" lane="50365112#0_0" startPos="0.00" endPos="13.00" friendlyPos="true" name="CARTOPEL"/>
    <busStop id="9d06f2e7-b8c6-43a7-8377-c3d4b5464292.0" lane="-91011057#5_0" startPos="26.88" endPos="39.88" friendlyPos="true" name="VIA A GULLANZHAPA(1)"/>
    <busStop id="9d06f2e7-b8c6-43a7-8377-c3d4b5464292.1" lane="405513787#1_0" startPos="19.78" endPos="32.78" friendlyPos="true" name="COLEGIO TURI"/>
    <busStop id="9d06f2e7-b8c6-43a7-8377-c3d4b5464292.2" lane="897098494#2_0" startPos="0.00" endPos="13.00" friendlyPos="true" name="PUEBLO DE TURI"/>
    <busStop id="9d06f2e7-b8c6-43a7-8377-c3d4b5464292.3" lane="534903533#1_0" startPos="341.01" endPos="354.01" friendlyPos="true" name="GALERIA VEGA"/>